Version 4
SHEET 1 880 680
WIRE 96 112 64 112
WIRE 0 160 0 112
WIRE 0 160 -112 160
WIRE 96 160 96 112
WIRE 272 160 176 160
WIRE 400 160 272 160
WIRE -112 176 -112 160
WIRE 0 224 0 160
WIRE 96 224 96 160
WIRE 96 224 80 224
FLAG 272 224 0
FLAG 400 240 0
FLAG -112 256 0
SYMBOL cap 64 96 R90
WINDOW 0 0 32 VBottom 2
WINDOW 3 32 32 VTop 2
SYMATTR InstName C1
SYMATTR Value {2/3}
SYMBOL res 96 208 R90
WINDOW 0 0 56 VBottom 2
WINDOW 3 32 56 VTop 2
SYMATTR InstName R1
SYMATTR Value {3/2}
SYMBOL res 192 144 R90
WINDOW 0 0 56 VBottom 2
WINDOW 3 32 56 VTop 2
SYMATTR InstName R2
SYMATTR Value 1
SYMBOL cap 256 160 R0
SYMATTR InstName C2
SYMATTR Value 2
SYMBOL res 384 144 R0
SYMATTR InstName R3
SYMATTR Value {1/6}
SYMBOL voltage -112 160 R0
WINDOW 123 24 124 Left 2
WINDOW 39 0 0 Left 0
SYMATTR InstName V1
SYMATTR Value ""
SYMATTR Value2 AC 1 0
TEXT -146 304 Left 2 !.ac dec 1000 0.0001 10
