Version 4
SHEET 1 880 680
WIRE 272 128 272 80
WIRE 400 128 272 128
WIRE 528 128 400 128
WIRE 16 144 -112 144
WIRE 192 144 192 80
WIRE 192 144 96 144
WIRE -112 176 -112 144
WIRE 192 176 192 144
WIRE 208 176 192 176
WIRE 272 176 272 128
WIRE 400 176 400 128
WIRE 528 176 528 128
WIRE 528 256 528 240
FLAG -112 256 0
FLAG 400 256 0
FLAG 528 256 0
SYMBOL voltage -112 160 R0
WINDOW 123 24 124 Left 2
WINDOW 39 0 0 Left 0
SYMATTR InstName V1
SYMATTR Value ""
SYMATTR Value2 AC 1 0
SYMBOL res 112 128 R90
WINDOW 0 0 56 VBottom 2
WINDOW 3 32 56 VTop 2
SYMATTR InstName R1
SYMATTR Value 2
SYMBOL res 288 64 R90
WINDOW 0 0 56 VBottom 2
WINDOW 3 32 56 VTop 2
SYMATTR InstName R2
SYMATTR Value 4
SYMBOL res 416 272 R180
WINDOW 0 36 76 Left 2
WINDOW 3 36 40 Left 2
SYMATTR InstName R3
SYMATTR Value {2/5}
SYMBOL cap 512 176 R0
SYMATTR InstName C1
SYMATTR Value 1
SYMBOL cap 272 160 R90
WINDOW 0 0 32 VBottom 2
WINDOW 3 32 32 VTop 2
SYMATTR InstName C2
SYMATTR Value {1/4}
TEXT -146 304 Left 2 !.ac dec 1000 0.0001 10
