Version 4
SHEET 1 1144 692
WIRE 64 112 -48 112
WIRE 256 112 144 112
WIRE 336 112 256 112
WIRE 432 112 400 112
WIRE 576 112 496 112
WIRE 640 112 576 112
WIRE 752 112 704 112
WIRE 912 112 816 112
WIRE 1088 112 912 112
WIRE -48 144 -48 112
WIRE 576 144 576 112
WIRE 1088 144 1088 112
WIRE 256 192 256 176
WIRE 912 192 912 176
WIRE -48 256 -48 224
WIRE 256 288 256 272
WIRE 576 288 576 224
WIRE 912 288 912 272
WIRE 1088 288 1088 224
FLAG -48 256 0
FLAG 256 288 0
FLAG 576 288 0
FLAG 912 288 0
FLAG 1088 288 0
FLAG -48 112 Vi
FLAG 256 112 Va
FLAG 1088 112 Vo
SYMBOL voltage -48 128 R0
WINDOW 123 24 124 Left 2
WINDOW 39 0 0 Left 0
SYMATTR Value2 AC 1 0
SYMATTR InstName V1
SYMATTR Value ""
SYMBOL res 160 96 R90
WINDOW 0 0 56 VBottom 2
WINDOW 3 32 56 VTop 2
SYMATTR InstName R1
SYMATTR Value 1
SYMBOL cap 240 112 R0
SYMATTR InstName C1
SYMATTR Value 0.94
SYMBOL ind 240 176 R0
SYMATTR InstName L1
SYMATTR Value 1.66
SYMBOL cap 400 96 R90
WINDOW 0 0 32 VBottom 2
WINDOW 3 32 32 VTop 2
SYMATTR InstName C2
SYMATTR Value 1.66
SYMBOL cap 496 96 R90
WINDOW 0 0 32 VBottom 2
WINDOW 3 32 32 VTop 2
SYMATTR InstName C3
SYMATTR Value 1
SYMBOL ind 560 128 R0
SYMATTR InstName L2
SYMATTR Value {1/2}
SYMBOL cap 704 96 R90
WINDOW 0 0 32 VBottom 2
WINDOW 3 32 32 VTop 2
SYMATTR InstName C4
SYMATTR Value 1
SYMBOL cap 816 96 R90
WINDOW 0 0 32 VBottom 2
WINDOW 3 32 32 VTop 2
SYMATTR InstName C5
SYMATTR Value 1.66
SYMBOL cap 896 112 R0
SYMATTR InstName C6
SYMATTR Value 0.94
SYMBOL ind 896 176 R0
SYMATTR InstName L3
SYMATTR Value 1.66
SYMBOL res 1072 128 R0
SYMATTR InstName R2
SYMATTR Value 1
TEXT -80 280 Left 2 !.ac dec 1000 0.001 10
